** ---------------------------------------------------------------------
*Material, name=Material-HastelloyX
*Conductivity
  9.606e-3 ,25.0
 11.570e-3,100.0
 13.057e-3,200.0
 14.696e-3,300.0
 16.345e-3,400.0
 16.593e-3,500.0
 20.695e-3,600.0
 24.127e-3,700.0
 23.929e-3,800.0
 25.547e-3,900.0
 27.915e-3,1000.0
 28.749e-3,1100.0
 30.897e-3,1357.6
463.455e-3,1757.6
*Density
 8351.910158e-09
*Specific Heat
 418.49000,   30
 442.84662,   50.
 458.51419,  100.
 478.60739,  250.
 495.52224,  430.
 584.49384,  620.
 601.70190,  830.
 649.56685, 1000.
 654.62494, 1357.6
 655.08000, 1757.6
*Latent Heat
-10.08e+3, 430.0, 620.0,
225.00e+3,1357.6,1757.6,
