** ---------------------------------------------------------------------
*Material, name=Material-HastelloyX
*Conductivity
 50e-3
*Density
 8220e-9
*Specific Heat
 486
** ---------------------------------------------------------------------
